data/D049759/Lines.dss
New Line.line0 Units=km Length=0.10019 bus1=n480249.1.2.3 bus2=n480250.1.2.3 switch=n enabled=y phases=3 Linecode=LV_240AL_XLPE_3
New Line.line1 Units=km Length=0.001 bus1=n480250.1.2.3 bus2=n480251.1.2.3 switch=n enabled=y phases=3 Linecode=66_HDCU_(19/2.11)_3
New Line.line10 Units=km Length=0.0184 bus1=n480258.1.2.3 bus2=n480259.1.2.3 switch=n enabled=y phases=3 Linecode=unknown_linecode_3
New Line.line11 Units=km Length=0.00279 bus1=n480259.1.2.3 bus2=n480260.1.2.3 switch=n enabled=y phases=3 Linecode=unknown_linecode_3
New Line.line12 Units=km Length=0.016350000000000003 bus1=n480260.1.2.3 bus2=n480269.1.2.3 switch=n enabled=y phases=3 Linecode=unknown_linecode_3
New Line.line13 Units=km Length=0.039560000000000005 bus1=n480255.1.2.3 bus2=n480262.1.2.3 switch=n enabled=y phases=3 Linecode=7/.134_AAC_3
New Line.line14 Units=km Length=0.05283 bus1=n480255.1.2.3 bus2=n480261.1.2.3 switch=n enabled=y phases=3 Linecode=66_HDCU_(19/2.11)_3
New Line.line15 Units=km Length=0.001 bus1=n480261.1.2.3 bus2=n749495.1.2.3 switch=n enabled=y phases=3 Linecode=66_HDCU_(19/2.11)_3
New Line.line16 Units=km Length=0.039909999999999994 bus1=n480262.1.2.3 bus2=n480263.1.2.3 switch=n enabled=y phases=3 Linecode=7/.134_AAC_3
New Line.line17 Units=km Length=0.001 bus1=n480263.1.2.3 bus2=n749496.1.2.3 switch=n enabled=y phases=3 Linecode=7/.134_AAC_3
New Line.line18 Units=km Length=0.02208 bus1=n480251.1.2.3 bus2=n749497.1.2.3 switch=n enabled=y phases=3 Linecode=25AL_ABC_3
New Line.line19 Units=km Length=0.04057 bus1=n480260.1.2.3 bus2=n749498.1.2.3 switch=n enabled=y phases=3 Linecode=unknown_linecode_3
New Line.line2 Units=km Length=0.001 bus1=n480251.1.2.3 bus2=n480252.1.2.3 switch=n enabled=y phases=3 Linecode=66_HDCU_(19/2.11)_3
New Line.line20 Units=km Length=0.001 bus1=n480255.1.2.3 bus2=n749499.1.2.3 switch=n enabled=y phases=3 Linecode=unknown_linecode_3
New Line.line21 Units=km Length=0.00135 bus1=n480259.1.2.3 bus2=n749500.1.2.3 switch=n enabled=y phases=3 Linecode=unknown_linecode_3
New Line.line22 Units=km Length=0.02113 bus1=n480260.1.2.3 bus2=n749501.1.2.3 switch=n enabled=y phases=3 Linecode=unknown_linecode_3
New Line.line23 Units=km Length=0.001 bus1=n480264.1.2.3 bus2=n480265.1.2.3 switch=n enabled=y phases=3 Linecode=7/4.4_Al_3
New Line.line24 Units=km Length=0.014539999999999999 bus1=n480265.1.2.3 bus2=n480266.1.2.3 switch=n enabled=y phases=3 Linecode=7/4.4_Al_3
New Line.line25 Units=km Length=0.001 bus1=n480266.1.2.3 bus2=n480267.1.2.3 switch=n enabled=y phases=3 Linecode=7/4.4_Al_3
New Line.line26 Units=km Length=0.03621 bus1=n480267.1.2.3 bus2=n749502.1.2.3 switch=n enabled=y phases=3 Linecode=7/4.4_Al_3
New Line.line27 Units=km Length=0.038149999999999996 bus1=n480252.1.2.3 bus2=n480268.1.2.3 switch=n enabled=y phases=3 Linecode=38_HD_CU_3
New Line.line28 Units=km Length=0.00508 bus1=n480268.1.2.3 bus2=n749503.1.2.3 switch=n enabled=y phases=3 Linecode=38_HD_CU_3
New Line.line29 Units=km Length=0.02036 bus1=n480269.1.2.3 bus2=n749504.1.2.3 switch=n enabled=y phases=3 Linecode=unknown_linecode_3
New Line.line3 Units=km Length=0.02171 bus1=n480252.1.2.3 bus2=n480253.1.2.3 switch=n enabled=y phases=3 Linecode=66_HDCU_(19/2.11)_3
New Line.line4 Units=km Length=0.02383 bus1=n480253.1.2.3 bus2=n480254.1.2.3 switch=n enabled=y phases=3 Linecode=66_HDCU_(19/2.11)_3
New Line.line5 Units=km Length=0.001 bus1=n480254.1.2.3 bus2=n480255.1.2.3 switch=n enabled=y phases=3 Linecode=66_HDCU_(19/2.11)_3
New Line.line6 Units=km Length=0.048549999999999996 bus1=n480255.1.2.3 bus2=n480256.1.2.3 switch=n enabled=y phases=3 Linecode=7/4.4_Al_3
New Line.line7 Units=km Length=0.001 bus1=n480256.1.2.3 bus2=n480257.1.2.3 switch=n enabled=y phases=3 Linecode=7/4.4_Al_3
New Line.line8 Units=km Length=0.030100000000000002 bus1=n480257.1.2.3 bus2=n480258.1.2.3 switch=n enabled=y phases=3 Linecode=unknown_linecode_3
New Line.line9 Units=km Length=0.058570000000000004 bus1=n480258.1.2.3 bus2=n480264.1.2.3 switch=n enabled=y phases=3 Linecode=unknown_linecode_3
